Version 4
SHEET 1 1164 680
WIRE -352 64 -352 32
WIRE 32 112 -112 112
WIRE 416 112 112 112
WIRE -112 128 -112 112
WIRE 416 128 416 112
WIRE -160 144 -176 144
WIRE -352 160 -352 144
WIRE -160 192 -176 192
WIRE -176 208 -176 192
WIRE -112 208 -176 208
WIRE 416 208 416 192
WIRE 416 208 160 208
WIRE -112 224 -112 208
WIRE 160 224 160 208
FLAG 160 224 0
FLAG -352 160 0
FLAG -352 32 line_in
FLAG -112 224 0
FLAG -176 144 line_in
FLAG 416 112 V_out
SYMBOL res 128 96 R90
WINDOW 0 0 56 VBottom 2
WINDOW 3 32 56 VTop 2
SYMATTR InstName R1
SYMATTR Value 2.2k
SYMBOL cap 400 128 R0
SYMATTR InstName C1
SYMATTR Value 200n
SYMBOL voltage -352 48 R0
WINDOW 3 -366 155 Left 2
WINDOW 123 0 0 Left 0
WINDOW 39 0 0 Left 0
SYMATTR Value wavefile=mogus.wav
SYMATTR InstName V1
SYMBOL e -112 112 R0
SYMATTR InstName E1
SYMATTR Value 1
TEXT -416 304 Left 2 !.tran 0 8 0
TEXT -416 352 Left 2 !.wave io.wav 16 44.1k V(line_in) V(V_out)
TEXT 32 304 Left 2 ;Need to remember to multiply V_in by static gain before ML model\nCould also just let model learn gain but might be a waste\n \nActually ignore above, just let model figure it out, however, should probably normalize the inputs\n(both for LTSpice and model)
TEXT -416 384 Left 2 !.wave states.wav 16 44.1k V(V_out)
TEXT -416 488 Left 2 !.wave ref_out.wav 16 44.1k V(V_out)
TEXT -416 520 Left 2 !.wave ref_in.wav 16 44.1k V(line_in)
