Version 4
SHEET 1 2144 1112
WIRE 1216 -16 1024 -16
WIRE 1584 16 1504 16
WIRE 1504 48 1504 16
WIRE 208 64 144 64
WIRE 1216 64 1168 64
WIRE 1456 64 1376 64
WIRE 1024 80 1024 64
WIRE 144 96 144 64
WIRE 208 96 208 64
WIRE 1456 112 1440 112
WIRE 1440 128 1440 112
WIRE 1504 128 1440 128
WIRE 1168 144 1168 64
WIRE 1504 144 1504 128
WIRE -288 160 -288 144
WIRE -160 160 -160 144
WIRE 1120 160 1104 160
WIRE 1120 208 1104 208
WIRE 1104 224 1104 208
WIRE 1168 224 1104 224
WIRE 1168 240 1168 224
WIRE 208 256 208 176
WIRE 208 256 -144 256
WIRE 512 256 208 256
WIRE 672 288 416 288
WIRE 864 288 752 288
WIRE 1008 320 1008 288
WIRE 864 336 864 288
WIRE 864 336 720 336
WIRE -64 352 -224 352
WIRE 192 352 16 352
WIRE 192 368 192 352
WIRE 192 368 48 368
WIRE 1008 416 1008 400
WIRE -304 432 -336 432
WIRE -224 432 -224 352
WIRE -224 432 -304 432
WIRE -192 432 -224 432
WIRE -144 432 -144 256
WIRE 48 432 48 368
WIRE 80 432 48 432
WIRE 416 432 416 288
WIRE 416 432 384 432
WIRE 464 432 416 432
WIRE 512 432 512 256
WIRE 720 432 720 336
WIRE 752 432 720 432
WIRE -32 448 -128 448
WIRE 192 448 192 368
WIRE 192 448 144 448
WIRE 640 448 528 448
WIRE 864 448 864 336
WIRE 864 448 816 448
WIRE -192 464 -208 464
WIRE -32 464 -32 448
WIRE 80 464 -32 464
WIRE 192 464 192 448
WIRE 224 464 192 464
WIRE 448 464 304 464
WIRE 464 464 448 464
WIRE 640 464 640 448
WIRE 752 464 640 464
WIRE -304 480 -304 432
WIRE -208 480 -208 464
WIRE -32 480 -32 464
WIRE 384 480 384 432
WIRE 448 480 448 464
WIRE 640 480 640 464
WIRE 864 480 864 448
WIRE 640 560 640 544
WIRE -304 576 -304 560
WIRE -208 576 -208 560
WIRE 384 576 384 560
WIRE 448 576 448 560
WIRE 864 592 864 544
WIRE 928 592 864 592
WIRE 864 608 864 592
WIRE 352 656 336 656
WIRE 432 656 416 656
WIRE 864 704 864 688
WIRE 864 704 752 704
WIRE 272 736 272 656
WIRE 352 736 336 736
WIRE 432 736 416 736
WIRE 496 736 496 656
WIRE 864 800 864 784
WIRE 272 816 272 736
WIRE 352 816 272 816
WIRE 448 816 432 816
WIRE 496 816 496 736
WIRE 496 816 448 816
WIRE 448 912 448 816
WIRE 448 912 416 912
WIRE -32 928 -32 544
WIRE 272 928 272 816
WIRE 272 928 -32 928
WIRE 352 928 272 928
WIRE 752 944 752 704
WIRE 752 944 416 944
WIRE 448 976 448 912
WIRE 448 1072 448 1056
FLAG -288 160 0
FLAG -160 160 0
FLAG -288 64 V+
FLAG -160 64 V-
FLAG -176 416 V+
FLAG 112 416 V+
FLAG 480 416 V+
FLAG 784 416 V+
FLAG 384 896 V+
FLAG -176 480 V-
FLAG 112 480 V-
FLAG 480 480 V-
FLAG 784 480 V-
FLAG 384 960 V-
FLAG -208 576 0
FLAG -304 576 0
FLAG 448 576 0
FLAG 384 576 0
FLAG 640 560 0
FLAG 864 800 0
FLAG 928 592 Out
FLAG 448 1072 0
FLAG -416 432 In
FLAG 1216 64 In
FLAG 1376 64 Out
FLAG 1216 -16 pitch_cv
FLAG 1024 80 0
FLAG 1008 416 0
FLAG 1008 288 line_in
FLAG 1168 240 0
FLAG 1104 160 line_in
FLAG 1504 144 0
FLAG 1584 16 line_out
FLAG 144 96 0
SYMBOL voltage -288 48 R0
WINDOW 123 0 0 Left 0
WINDOW 39 0 0 Left 0
SYMATTR InstName V1
SYMATTR Value 15V
SYMBOL voltage -160 48 R0
WINDOW 123 0 0 Left 0
WINDOW 39 0 0 Left 0
SYMATTR InstName V2
SYMATTR Value -15V
SYMBOL EXTRA\\AudioOpamp\\TI\\TL072 112 448 R0
SYMATTR InstName U1
SYMBOL EXTRA\\AudioOpamp\\TI\\TL072 784 448 R0
SYMATTR InstName U2
SYMBOL EXTRA\\AudioOpamp\\TI\\TL072 384 928 M0
SYMATTR InstName U3
SYMBOL OpAmp.Add\\ca3080a -160 448 R0
SYMATTR InstName U4
SYMBOL OpAmp.Add\\ca3080a 496 448 R0
SYMATTR InstName U5
SYMBOL res -320 416 R90
WINDOW 0 0 56 VBottom 2
WINDOW 3 32 56 VTop 2
SYMATTR InstName R1
SYMATTR Value 10k
SYMBOL res -192 576 R180
WINDOW 0 36 76 Left 2
WINDOW 3 36 40 Left 2
SYMATTR InstName R2
SYMATTR Value 220
SYMBOL res -288 576 R180
WINDOW 0 36 76 Left 2
WINDOW 3 36 40 Left 2
SYMATTR InstName R3
SYMATTR Value 220
SYMBOL res 32 336 R90
WINDOW 0 0 56 VBottom 2
WINDOW 3 32 56 VTop 2
SYMATTR InstName R4
SYMATTR Value 10k
SYMBOL res 768 272 R90
WINDOW 0 0 56 VBottom 2
WINDOW 3 32 56 VTop 2
SYMATTR InstName R5
SYMATTR Value 10k
SYMBOL res 320 448 R90
WINDOW 0 0 56 VBottom 2
WINDOW 3 32 56 VTop 2
SYMATTR InstName R6
SYMATTR Value 10k
SYMBOL res 464 576 R180
WINDOW 0 -53 49 Left 2
WINDOW 3 -53 26 Left 2
SYMATTR InstName R7
SYMATTR Value 220
SYMBOL res 400 576 R180
WINDOW 0 36 76 Left 2
WINDOW 3 36 40 Left 2
SYMATTR InstName R8
SYMATTR Value 220
SYMBOL cap 624 480 R0
SYMATTR InstName C1
SYMATTR Value 1n
SYMBOL cap -48 480 R0
SYMATTR InstName C2
SYMATTR Value 1n
SYMBOL cap 848 480 R0
SYMATTR InstName C3
SYMATTR Value 0.47µ
SYMBOL res 848 592 R0
SYMATTR InstName R9
SYMATTR Value 99K
SYMBOL res 848 688 R0
SYMATTR InstName R10
SYMATTR Value 1K
SYMBOL res 432 960 R0
SYMATTR InstName R11
SYMATTR Value 1.8k
SYMBOL res 448 800 R90
WINDOW 0 0 56 VBottom 2
WINDOW 3 32 56 VTop 2
SYMATTR InstName R12
SYMATTR Value 10k
SYMBOL diode 336 640 R90
WINDOW 0 0 32 VBottom 2
WINDOW 3 30 73 VTop 2
SYMATTR InstName D1
SYMATTR Value 1N4148
SYMBOL diode 272 752 R270
WINDOW 0 32 32 VTop 2
WINDOW 3 1 -6 VBottom 2
SYMATTR InstName D2
SYMATTR Value 1N4148
SYMBOL diode 352 752 R270
WINDOW 0 32 32 VTop 2
WINDOW 3 0 32 VBottom 2
SYMATTR InstName D3
SYMATTR Value 1N4148
SYMBOL diode 432 752 R270
WINDOW 0 32 32 VTop 2
WINDOW 3 1 64 VBottom 2
SYMATTR InstName D4
SYMATTR Value 1N4148
SYMBOL diode 496 640 R90
WINDOW 0 0 32 VBottom 2
WINDOW 3 31 2 VTop 2
SYMATTR InstName D5
SYMATTR Value 1N4148
SYMBOL diode 416 640 R90
WINDOW 0 0 32 VBottom 2
WINDOW 3 31 30 VTop 2
SYMATTR InstName D6
SYMATTR Value 1N4148
SYMBOL voltage 1024 -32 R0
SYMATTR InstName V3
SYMATTR Value 0
SYMBOL e 1168 128 R0
SYMATTR InstName E1
SYMATTR Value 5
SYMBOL e 1504 32 R0
SYMATTR InstName E2
SYMATTR Value 0.2
SYMBOL current 208 96 R0
WINDOW 123 0 0 Left 0
WINDOW 39 0 0 Left 0
SYMATTR InstName I1
SYMATTR Value 2m
SYMBOL voltage 1008 304 R0
WINDOW 123 24 124 Left 2
WINDOW 39 0 0 Left 0
SYMATTR InstName V4
SYMATTR Value ""
SYMATTR Value2 AC 1
TEXT 936 696 Left 2 ;R15/R16 should be 100K log pot res control
TEXT 264 136 Left 2 ;Pitch Ctrl Current: 0 to 2 mA exponential
TEXT 1230 504 Left 2 !.ac dec 100 1 44.1k
