Version 4
SHEET 1 3020 1532
WIRE -576 -320 -576 -336
WIRE -448 -320 -448 -336
WIRE 816 -320 752 -320
WIRE 480 -304 432 -304
WIRE 640 -304 560 -304
WIRE 688 -304 640 -304
WIRE 816 -304 816 -320
WIRE 784 -288 752 -288
WIRE 1920 -240 1728 -240
WIRE 432 -208 432 -304
WIRE 432 -208 400 -208
WIRE 464 -208 432 -208
WIRE 2288 -208 2208 -208
WIRE 640 -192 640 -304
WIRE 2208 -176 2208 -208
WIRE 96 -160 32 -160
WIRE 208 -160 176 -160
WIRE 336 -160 208 -160
WIRE 560 -160 528 -160
WIRE 1920 -160 1872 -160
WIRE 2160 -160 2080 -160
WIRE 560 -144 560 -160
WIRE 1728 -144 1728 -160
WIRE 208 -128 208 -160
WIRE 2160 -112 2144 -112
WIRE 2144 -96 2144 -112
WIRE 2208 -96 2144 -96
WIRE 400 -80 400 -112
WIRE 640 -80 640 -128
WIRE 640 -80 400 -80
WIRE 784 -80 784 -288
WIRE 784 -80 640 -80
WIRE 1872 -80 1872 -160
WIRE 2208 -80 2208 -96
WIRE 1824 -64 1808 -64
WIRE 208 -32 208 -48
WIRE 1824 -16 1808 -16
WIRE 1808 0 1808 -16
WIRE 1872 0 1808 0
WIRE 400 16 400 0
WIRE 1872 16 1872 0
WIRE 1712 96 1712 64
WIRE 272 128 112 128
WIRE 464 128 464 -112
WIRE 464 128 352 128
WIRE 608 128 464 128
WIRE 768 128 688 128
WIRE 928 160 672 160
WIRE 1120 160 1008 160
WIRE 1712 192 1712 176
WIRE 1120 208 1120 160
WIRE 1120 208 976 208
WIRE 192 224 32 224
WIRE 448 224 272 224
WIRE 448 240 448 224
WIRE 448 240 304 240
WIRE -48 304 -80 304
WIRE 32 304 32 224
WIRE 32 304 -48 304
WIRE 64 304 32 304
WIRE 112 304 112 128
WIRE 304 304 304 240
WIRE 336 304 304 304
WIRE 672 304 672 160
WIRE 672 304 640 304
WIRE 720 304 672 304
WIRE 768 304 768 128
WIRE 976 304 976 208
WIRE 1008 304 976 304
WIRE 224 320 128 320
WIRE 448 320 448 240
WIRE 448 320 400 320
WIRE 896 320 784 320
WIRE 1120 320 1120 208
WIRE 1120 320 1072 320
WIRE 64 336 48 336
WIRE 224 336 224 320
WIRE 336 336 224 336
WIRE 448 336 448 320
WIRE 480 336 448 336
WIRE 704 336 560 336
WIRE 720 336 704 336
WIRE 896 336 896 320
WIRE 1008 336 896 336
WIRE -48 352 -48 304
WIRE 48 352 48 336
WIRE 224 352 224 336
WIRE 640 352 640 304
WIRE 704 352 704 336
WIRE 896 352 896 336
WIRE 1120 352 1120 320
WIRE 896 432 896 416
WIRE -48 448 -48 432
WIRE 48 448 48 432
WIRE 640 448 640 432
WIRE 704 448 704 432
WIRE 1120 464 1120 416
WIRE 1184 464 1120 464
WIRE 1120 480 1120 464
WIRE 608 528 592 528
WIRE 688 528 672 528
WIRE 1120 576 1120 560
WIRE 1120 576 1008 576
WIRE 528 608 528 528
WIRE 608 608 592 608
WIRE 688 608 672 608
WIRE 752 608 752 528
WIRE 1120 672 1120 656
WIRE 528 688 528 608
WIRE 608 688 528 688
WIRE 704 688 688 688
WIRE 752 688 752 608
WIRE 752 688 704 688
WIRE 704 784 704 688
WIRE 704 784 672 784
WIRE 224 800 224 416
WIRE 528 800 528 688
WIRE 528 800 224 800
WIRE 608 800 528 800
WIRE 1008 816 1008 576
WIRE 1008 816 672 816
WIRE 704 848 704 784
WIRE 704 944 704 928
FLAG 32 -160 pitch_cv
FLAG 208 -32 0
FLAG -576 -320 0
FLAG -448 -320 0
FLAG -576 -416 V+
FLAG -448 -416 V-
FLAG 400 16 V-
FLAG 560 -144 0
FLAG 816 -304 0
FLAG 720 -336 V-
FLAG 720 -272 V+
FLAG 80 288 V+
FLAG 368 288 V+
FLAG 736 288 V+
FLAG 1040 288 V+
FLAG 640 768 V+
FLAG 80 352 V-
FLAG 368 352 V-
FLAG 736 352 V-
FLAG 1040 352 V-
FLAG 640 832 V-
FLAG 48 448 0
FLAG -48 448 0
FLAG 704 448 0
FLAG 640 448 0
FLAG 896 432 0
FLAG 1120 672 0
FLAG 1184 464 Out
FLAG 704 944 0
FLAG -160 304 In
FLAG 1920 -160 In
FLAG 2080 -160 Out
FLAG 1920 -240 pitch_cv
FLAG 1728 -144 0
FLAG 1712 192 0
FLAG 1712 64 line_in
FLAG 1872 16 0
FLAG 1808 -64 line_in
FLAG 2208 -80 0
FLAG 2288 -208 line_out
SYMBOL res 192 -176 R90
WINDOW 0 0 56 VBottom 2
WINDOW 3 32 56 VTop 2
SYMATTR InstName R1
SYMATTR Value 100k
SYMBOL res 192 -144 R0
SYMATTR InstName R2
SYMATTR Value 1.8k
SYMBOL pnp 336 -112 M180
WINDOW 0 -22 5 Left 2
WINDOW 3 -51 103 Left 2
SYMATTR InstName Q1
SYMATTR Value BC558C
SYMBOL pnp 528 -112 R180
WINDOW 0 -22 5 Left 2
WINDOW 3 -51 103 Left 2
SYMATTR InstName Q2
SYMATTR Value BC558C
SYMBOL voltage -576 -432 R0
WINDOW 123 0 0 Left 0
WINDOW 39 0 0 Left 0
SYMATTR InstName V1
SYMATTR Value 15V
SYMBOL voltage -448 -432 R0
WINDOW 123 0 0 Left 0
WINDOW 39 0 0 Left 0
SYMATTR InstName V2
SYMATTR Value -15V
SYMBOL res 384 -96 R0
SYMATTR InstName R3
SYMATTR Value 470k
SYMBOL res 576 -320 R90
WINDOW 0 0 56 VBottom 2
WINDOW 3 32 56 VTop 2
SYMATTR InstName R4
SYMATTR Value 4.7k
SYMBOL EXTRA\\AudioOpamp\\TI\\TL072 368 320 R0
SYMATTR InstName U1
SYMBOL EXTRA\\AudioOpamp\\TI\\TL072 1040 320 R0
SYMATTR InstName U2
SYMBOL EXTRA\\AudioOpamp\\TI\\TL072 640 800 M0
SYMATTR InstName U3
SYMBOL EXTRA\\AudioOpamp\\TI\\TL072 720 -304 R180
SYMATTR InstName U4
SYMBOL cap 624 -192 R0
SYMATTR InstName C1
SYMATTR Value 4.7n
SYMBOL res 368 112 R90
WINDOW 0 0 56 VBottom 2
WINDOW 3 32 56 VTop 2
SYMATTR InstName R5
SYMATTR Value 10k
SYMBOL res 704 112 R90
WINDOW 0 0 56 VBottom 2
WINDOW 3 32 56 VTop 2
SYMATTR InstName R6
SYMATTR Value 10k
SYMBOL OpAmp.Add\\ca3080a 96 320 R0
SYMATTR InstName U5
SYMBOL OpAmp.Add\\ca3080a 752 320 R0
SYMATTR InstName U6
SYMBOL res -64 288 R90
WINDOW 0 0 56 VBottom 2
WINDOW 3 32 56 VTop 2
SYMATTR InstName R7
SYMATTR Value 10k
SYMBOL res 64 448 R180
WINDOW 0 36 76 Left 2
WINDOW 3 36 40 Left 2
SYMATTR InstName R8
SYMATTR Value 220
SYMBOL res -32 448 R180
WINDOW 0 36 76 Left 2
WINDOW 3 36 40 Left 2
SYMATTR InstName R9
SYMATTR Value 220
SYMBOL res 288 208 R90
WINDOW 0 0 56 VBottom 2
WINDOW 3 32 56 VTop 2
SYMATTR InstName R10
SYMATTR Value 10k
SYMBOL res 1024 144 R90
WINDOW 0 0 56 VBottom 2
WINDOW 3 32 56 VTop 2
SYMATTR InstName R11
SYMATTR Value 10k
SYMBOL res 576 320 R90
WINDOW 0 0 56 VBottom 2
WINDOW 3 32 56 VTop 2
SYMATTR InstName R12
SYMATTR Value 10k
SYMBOL res 720 448 R180
WINDOW 0 -53 49 Left 2
WINDOW 3 -53 26 Left 2
SYMATTR InstName R13
SYMATTR Value 220
SYMBOL res 656 448 R180
WINDOW 0 36 76 Left 2
WINDOW 3 36 40 Left 2
SYMATTR InstName R14
SYMATTR Value 220
SYMBOL cap 880 352 R0
SYMATTR InstName C2
SYMATTR Value 1n
SYMBOL cap 208 352 R0
SYMATTR InstName C3
SYMATTR Value 1n
SYMBOL cap 1104 352 R0
SYMATTR InstName C4
SYMATTR Value 0.47µ
SYMBOL res 1104 464 R0
SYMATTR InstName R15
SYMATTR Value 70K
SYMBOL res 1104 560 R0
SYMATTR InstName R16
SYMATTR Value 30K
SYMBOL res 688 832 R0
SYMATTR InstName R17
SYMATTR Value 1.8k
SYMBOL res 704 672 R90
WINDOW 0 0 56 VBottom 2
WINDOW 3 32 56 VTop 2
SYMATTR InstName R18
SYMATTR Value 10k
SYMBOL diode 592 512 R90
WINDOW 0 0 32 VBottom 2
WINDOW 3 30 73 VTop 2
SYMATTR InstName D6
SYMATTR Value 1N4148
SYMBOL diode 528 624 R270
WINDOW 0 32 32 VTop 2
WINDOW 3 1 -6 VBottom 2
SYMATTR InstName D1
SYMATTR Value 1N4148
SYMBOL diode 608 624 R270
WINDOW 0 32 32 VTop 2
WINDOW 3 0 32 VBottom 2
SYMATTR InstName D2
SYMATTR Value 1N4148
SYMBOL diode 688 624 R270
WINDOW 0 32 32 VTop 2
WINDOW 3 1 64 VBottom 2
SYMATTR InstName D3
SYMATTR Value 1N4148
SYMBOL diode 752 512 R90
WINDOW 0 0 32 VBottom 2
WINDOW 3 31 2 VTop 2
SYMATTR InstName D4
SYMATTR Value 1N4148
SYMBOL diode 672 512 R90
WINDOW 0 0 32 VBottom 2
WINDOW 3 31 30 VTop 2
SYMATTR InstName D5
SYMATTR Value 1N4148
SYMBOL voltage 1728 -256 R0
SYMATTR InstName V3
SYMATTR Value 0
SYMBOL voltage 1712 80 R0
WINDOW 3 -269 118 Left 2
WINDOW 123 0 0 Left 0
WINDOW 39 0 0 Left 0
SYMATTR Value wavefile=..\ref_in.wav
SYMATTR InstName V4
SYMBOL e 1872 -96 R0
SYMATTR InstName E1
SYMATTR Value 5
SYMBOL e 2208 -192 R0
SYMATTR InstName E2
SYMATTR Value 0.2
TEXT 1192 568 Left 2 ;R15/R16 should be 100K log pot res control
TEXT 1440 240 Left 2 !.tran 0 2 0
TEXT 1440 288 Left 2 !.wave io.wav 16 44.1k V(line_in) V(line_out)
TEXT 1440 320 Left 2 !.wave states.wav 16 44.1k V(line_out)
TEXT 1440 352 Left 2 !.wave ref_out.wav 16 44.1k V(line_out)
TEXT 1440 376 Left 2 !.wave ref_in.wav 16 44.1k V(line_in)
